&share
 wrf_core = 'ARW',
 max_dom = 3,
 start_date = '2010-01-14_00:00:00','2010-01-14_00:00:00','2010-01-14_00:00:00','2010-01-14_00:00:00','2010-01-14_00:00:00',
 end_date   = '2010-01-16_00:00:00','2010-01-16_00:00:00','2010-01-16_00:00:00','2010-01-16_00:00:00','2010-01-16_00:00:00',
 interval_seconds = 21600
 io_form_geogrid = 2,
/

&geogrid
 parent_id         = 1,  1,   2,   
 parent_grid_ratio = 1,  3,   3,  
 i_parent_start    = 1,  31,  67,  
 j_parent_start    = 1,  31,  67,  
 e_we              = 122, 187,  157,  91,
 e_sn              = 122, 187,  157,  91,
 geog_data_res     = '10m', '2m','2m',
 dx = 9000,
 dy = 9000,
 map_proj = 'mercator',
 ref_lat   =  -6.9,
 ref_lon   = 107.58,
 truelat1  =  -15.0,
 truelat2  =  15.0,
 stand_lon = -98.0,
 geog_data_path = '/backup/Documents/WRF/wps_data/geog'
 opt_geogrid_tbl_path = 'geogrid/'
/

&ungrib
 out_format = 'WPS',
 prefix = 'FILE',
/

&metgrid
 fg_name = 'FILE'
 io_form_metgrid = 2, 
/
